LTspice 24.0.9 for Windows
Circuit: * Z:\home\bartosz\Documents\projekty\arm\pulsar\simulation\SEPIC.asc
Start Time: Thu Feb  8 17:53:18 2024
solver = Normal
Maximum thread count: 8
tnom = 27
temp = 27
method = modified trap
Limiting rise time of source v1 to 5e-07
Limiting fall time of source v1 to 5e-07
Direct Newton iteration for .op point succeeded.
Total elapsed time: 0.234 seconds.

