LTspice 24.0.9 for Windows
Circuit: * Z:\home\bartosz\Documents\projekty\arm\pulsar\simulation\SEPIC.asc
Start Time: Mon Feb  5 23:19:07 2024
solver = Normal
Maximum thread count: 8
tnom = 27
temp = 27
method = modified trap
Limiting rise time of source v1 to 1e-07
Limiting fall time of source v1 to 1e-07
Direct Newton iteration for .op point succeeded.
Total elapsed time: 0.275 seconds.

