LTspice 24.0.9 for Windows
Circuit: * Z:\home\bartosz\Documents\projekty\arm\pulsar\simulation\StepUpDown.asc
Start Time: Sun Feb 11 22:39:48 2024
solver = Normal
Maximum thread count: 8
tnom = 27
temp = 27
method = modified trap
Limiting rise time of source v2 to 1e-08
Limiting fall time of source v2 to 1e-08
Limiting rise time of source v3 to 5e-08
Limiting fall time of source v3 to 5e-08
WARNING: Node NC_02 is floating.

WARNING: Less than two connections to node nc_01.  This node is used by v3.
WARNING: Less than two connections to node nc_02.  This node is used by v3.
.OP point found by inspection.
Total elapsed time: 5.241 seconds.

